<routes>
    <vType id="bus_bus" vClass="bus"/>
    <vType id="motorcycle_motorcycle" vClass="motorcycle"/>
    <vType id="truck_truck" length="16.50" vClass="trailer"/>
    <vType id="veh_passenger" vClass="passenger"/>
    <trip depart="0.00" departLane="best" departSpeed="max" from="104477959" id="bus0" to="30375664#1" type="bus_bus" />
    <trip depart="0.00" departLane="best" departSpeed="max" from="-784004246#1" id="motorcycle0" to="-137724783" type="motorcycle_motorcycle" />
    <trip depart="0.00" departLane="best" departSpeed="max" from="-905931358" id="veh0" to="-137724783" type="veh_passenger" />
    <trip depart="0.40" departLane="best" departSpeed="max" from="-190583531" id="veh1" to="-96717944#1" type="veh_passenger" />
    <trip depart="0.79" departLane="best" departSpeed="max" from="104478161#0" id="veh2" to="314690778#0" type="veh_passenger" />
    <trip depart="1.19" departLane="best" departSpeed="max" from="32911737" id="veh3" to="-190568621" type="veh_passenger" />
    <trip depart="1.98" departLane="best" departSpeed="max" from="-190568651#1" id="veh5" to="211463851#3" type="veh_passenger" />
    <trip depart="2.38" departLane="best" departSpeed="max" from="-1117467078" id="veh6" to="-70931810#4" type="veh_passenger" />
    <trip depart="2.77" departLane="best" departSpeed="max" from="-915152630" id="veh7" to="284313254#0" type="veh_passenger" />
    <trip depart="3.17" departLane="best" departSpeed="max" from="-190568651#1" id="veh8" to="30173664" type="veh_passenger" />
    <trip depart="3.56" departLane="best" departSpeed="max" from="23495067" id="veh9" to="-104477959" type="veh_passenger" />
    <trip depart="3.96" departLane="best" departSpeed="max" from="217887388#0" id="veh10" to="32911734" type="veh_passenger" />
    <trip depart="4.35" departLane="best" departSpeed="max" from="-185309158" id="veh11" to="-192485198#1" type="veh_passenger" />
    <trip depart="4.75" departLane="best" departSpeed="max" from="30406395#0" id="veh12" to="30372777" type="veh_passenger" />
    <trip depart="4.88" departLane="best" departSpeed="max" from="-190575198" id="motorcycle1" to="-96717908" type="motorcycle_motorcycle" />
    <trip depart="5.00" from="609563228#0" id="truck_ba_ke_hore_1" to="232306715" type="truck_truck" via="609936381" />
	<trip depart="5.15" departLane="best" departSpeed="max" from="23495067" id="veh13" to="33233000" type="veh_passenger" />
    <trip depart="5.54" departLane="best" departSpeed="max" from="-461156825" id="veh14" to="E0" type="veh_passenger" />
    <trip depart="5.83" departLane="best" departSpeed="max" from="32125952#0" id="bus1" to="-190568621" type="bus_bus" />
    <trip depart="5.94" departLane="best" departSpeed="max" from="-30372743" id="veh15" to="292477466" type="veh_passenger" />
    <trip depart="6.33" departLane="best" departSpeed="max" from="30372714#0" id="veh16" to="30372793" type="veh_passenger" />
    <trip depart="6.73" departLane="best" from="31563254#0" id="veh17" to="30173659" type="veh_passenger" />
    <trip depart="7.13" departLane="best" departSpeed="max" from="-E0" id="veh18" to="-156062331" type="veh_passenger" />
    <trip depart="7.52" departLane="best" departSpeed="max" from="-190568705#1" id="veh19" to="130796848" type="veh_passenger" />
    <trip depart="7.92" departLane="best" departSpeed="max" from="-175410675#2" id="veh20" to="-96722132#1" type="veh_passenger" />
    <trip depart="8.31" departLane="best" departSpeed="max" from="-186137686" id="veh21" to="1117467078" type="veh_passenger" />
    <trip depart="8.71" departLane="best" departSpeed="max" from="-905931358" id="veh22" to="185309413#1" type="veh_passenger" />
    <trip depart="9.11" departLane="best" departSpeed="max" from="-190575213" id="veh23" to="96705681" type="veh_passenger" />
    <trip depart="9.50" departLane="best" departSpeed="max" from="-915152630" id="veh24" to="30372788" type="veh_passenger" />
    <trip depart="9.77" departLane="best" departSpeed="max" from="-E0" id="motorcycle2" to="313240470#0" type="motorcycle_motorcycle" />
    <trip depart="9.90" departLane="best" departSpeed="max" from="-190561840" id="veh25" to="33233000" type="veh_passenger" />
    <trip depart="10.00" from="609563228#0" id="truck_ba_ke_dole_1" to="232306715" type="truck_truck" via="700510900 30408504" />
	<trip depart="10.29" departLane="best" departSpeed="max" from="-189817827" id="veh26" to="186137697" type="veh_passenger" />
    <trip depart="10.69" departLane="best" departSpeed="max" from="-508253691" id="veh27" to="31692772" type="veh_passenger" />
    <trip depart="11.08" departLane="best" departSpeed="max" from="30372739" id="veh28" to="454040949#0" type="veh_passenger" />
    <trip depart="11.88" departLane="best" departSpeed="max" from="-211374403#2" id="veh30" to="101883745#1" type="veh_passenger" />
    <trip depart="12.27" departLane="best" departSpeed="max" from="-190568641" id="veh31" to="96705720" type="veh_passenger" />
    <trip depart="12.67" departLane="best" departSpeed="max" from="32124684#0" id="veh32" to="155783436#0" type="veh_passenger" />
    <trip depart="13.06" departLane="best" departSpeed="max" from="352882117" id="veh33" to="190568648#1" type="veh_passenger" />
    <trip depart="13.46" departLane="best" departSpeed="max" from="-190575213" id="veh34" to="-E3" type="veh_passenger" />
    <trip depart="13.86" departLane="best" departSpeed="max" from="-589373110" id="veh35" to="101883663" type="veh_passenger" />
    <trip depart="14.25" departLane="best" departSpeed="max" from="-636485111" id="veh36" to="851208065" type="veh_passenger" />
    <trip depart="14.65" departLane="best" departSpeed="max" from="32124684#0" id="motorcycle3" to="-190443377#0" type="motorcycle_motorcycle" />
    <trip depart="14.65" departLane="best" departSpeed="max" from="-30372790#5" id="veh37" to="-96717930#0" type="veh_passenger" />
    <trip depart="15.04" departLane="best" departSpeed="max" from="E2" id="veh38" to="222335167" type="veh_passenger" />
    <trip depart="15.44" departLane="best" departSpeed="max" from="-185309158" id="veh39" to="-156062331" type="veh_passenger" />
    <trip depart="15.84" departLane="best" departSpeed="max" from="-186137688" id="veh40" to="30375664#1" type="veh_passenger" />
    <trip depart="16.23" departLane="best" departSpeed="max" from="190443377#0" id="veh41" to="189804179" type="veh_passenger" />
    <trip depart="16.63" departLane="best" departSpeed="max" from="-156389211#0" id="veh42" to="186137697" type="veh_passenger" />
    <trip depart="17.02" departLane="best" departSpeed="max" from="E2" id="veh43" to="235045390" type="veh_passenger" />
    <trip depart="17.42" departLane="best" departSpeed="max" from="-101883663" id="veh44" to="330480809#1" type="veh_passenger" />
    <trip depart="17.49" departLane="best" departSpeed="max" from="-101883772" id="bus3" to="-693089275#0" type="bus_bus" />
    <trip depart="17.81" departLane="best" departSpeed="max" from="-96717902" id="veh45" to="253811301" type="veh_passenger" />
    <trip depart="18.21" departLane="best" departSpeed="max" from="-190575213" id="veh46" to="30375695#1" type="veh_passenger" />
    <trip depart="18.61" departLane="best" departSpeed="max" from="-186137696#0" id="veh47" to="189817827" type="veh_passenger" />
    <trip depart="19.00" departLane="best" departSpeed="max" from="-31563254#2" id="veh48" to="96717940" type="veh_passenger" />
    <trip depart="19.40" departLane="best" departSpeed="max" from="32124684#0" id="veh49" to="101883663" type="veh_passenger" />
    <trip depart="19.53" departLane="best" departSpeed="max" from="-30372788" id="motorcycle4" to="-137724783" type="motorcycle_motorcycle" />
    <trip depart="19.79" departLane="best" departSpeed="max" from="-34156865#5" id="veh50" to="-482680679#0" type="veh_passenger" />
    <trip depart="20.00" from="609563228#0" id="tra_do_KE_dolna_cesta_1" to="232306715" type="veh_passenger" via="30408504" />
	<trip depart="20.19" departLane="best" departSpeed="max" from="352882117" id="veh51" to="70931799" type="veh_passenger" />
    <trip depart="20.59" departLane="best" departSpeed="max" from="-192485197#2" id="veh52" to="30375693" type="veh_passenger" />
    <trip depart="20.98" departLane="best" departSpeed="max" from="-784004246#1" id="veh53" to="-32125952#0" type="veh_passenger" />
    <trip depart="21.38" departLane="best" departSpeed="max" from="155782575" id="veh54" to="253845010" type="veh_passenger" />
    <trip depart="21.77" departLane="best" departSpeed="max" from="187679452#0" id="veh55" to="235045390" type="veh_passenger" />
    <trip depart="22.17" departLane="best" departSpeed="max" from="-101883176#2" id="veh56" to="156389209#0" type="veh_passenger" />
    <trip depart="22.57" departLane="best" departSpeed="max" from="32124684#0" id="veh57" to="60292296" type="veh_passenger" />
    <trip depart="22.96" departLane="best" departSpeed="max" from="-211367329#1" id="veh58" to="-187427953#3" type="veh_passenger" />
    <trip depart="23.00" from="609563228#0" id="tra_do_KE_mesto_cesta_1" to="232306715" type="veh_passenger" via="-50903418#1 -186602943#6" />
	<trip depart="23.32" departLane="best" departSpeed="max" from="-190561871" id="bus4" to="292477466" type="bus_bus" />
    <trip depart="23.36" departLane="best" departSpeed="max" from="32124684#0" id="veh59" to="96717902" type="veh_passenger" />
    <trip depart="23.75" departLane="best" departSpeed="max" from="-185309157" id="veh60" to="192485197#2" type="veh_passenger" />
    <trip depart="24.15" departLane="best" departSpeed="max" from="-156389212#1" id="veh61" to="355419955#0" type="veh_passenger" />
    <trip depart="24.41" departLane="best" departSpeed="max" from="-190568641" id="motorcycle5" to="192485204#1" type="motorcycle_motorcycle" />
    <trip depart="24.55" departLane="best" departSpeed="max" from="-461156825" id="veh62" to="33233000" type="veh_passenger" />
    <trip depart="24.94" departLane="best" departSpeed="max" from="-30413441#0" id="veh63" to="232295212" type="veh_passenger" />
    <trip depart="25.00" from="609563228#0" id="tra_do_KE_horna_cesta_1" to="232306715" type="veh_passenger" via="609936381" />
	<trip depart="25.34" departLane="best" departSpeed="max" from="-235045390" id="veh64" to="30173664" type="veh_passenger" />
    <trip depart="25.73" departLane="best" departSpeed="max" from="-190568716" id="veh65" to="91084045#1" type="veh_passenger" />
    <trip depart="26.13" departLane="best" departSpeed="max" from="30413453#0" id="veh66" to="-187679468" type="veh_passenger" />
    <trip depart="26.52" departLane="best" departSpeed="max" from="-190575074" id="veh67" to="313240470#0" type="veh_passenger" />
    <trip depart="26.92" departLane="best" departSpeed="max" from="609563228#0" id="veh68" to="30173637" type="veh_passenger" />
    <trip depart="27.32" departLane="best" departSpeed="max" from="-32911753#1.15" id="veh69" to="461156825" type="veh_passenger" />
    <trip depart="27.71" departLane="best" departSpeed="max" from="23495067" id="veh70" to="661906817#0" type="veh_passenger" />
    <trip depart="28.11" departLane="best" departSpeed="max" from="-185309413#1" id="veh71" to="189804194" type="veh_passenger" />
    <trip depart="28.50" departLane="best" departSpeed="max" from="-30375693" id="veh72" to="190568717#1" type="veh_passenger" />
    <trip depart="28.90" departLane="best" departSpeed="max" from="104477959" id="veh73" to="313240470#0" type="veh_passenger" />
    <trip depart="29.14" departLane="best" departSpeed="max" from="192485198#0" id="bus5" to="-104477959" type="bus_bus" />
    <trip depart="29.30" departLane="best" departSpeed="max" from="-1117467078" id="motorcycle6" to="661906817#0" type="motorcycle_motorcycle" />
    <trip depart="29.30" departLane="best" departSpeed="max" from="96722132#0" id="veh74" to="-192485198#1" type="veh_passenger" />
    <trip depart="29.69" departLane="best" from="312543398#0" id="veh75" to="-E3" type="veh_passenger" />
    <trip depart="30.09" departLane="best" departSpeed="max" from="-30375691#3" id="veh76" to="1117467078" type="veh_passenger" />
    <trip depart="30.48" departLane="best" departSpeed="max" from="-190575121" id="veh77" to="95535632" type="veh_passenger" />
    <trip depart="30.88" departLane="best" departSpeed="max" from="-30413451" id="veh78" to="693085908" type="veh_passenger" />
    <trip depart="31.28" departLane="best" departSpeed="max" from="-465250736#3" id="veh79" to="-186137743#0" type="veh_passenger" />
    <trip depart="31.67" departLane="best" departSpeed="max" from="E2" id="veh80" to="60292314#2" type="veh_passenger" />
    <trip depart="32.07" departLane="best" departSpeed="max" from="96717915" id="veh81" to="95535632" type="veh_passenger" />
    <trip depart="32.46" departLane="best" departSpeed="max" from="30406395#0" id="veh82" to="-32911752#0" type="veh_passenger" />
    <trip depart="32.86" departLane="best" departSpeed="max" from="-32911768" id="veh83" to="-96717908" type="veh_passenger" />
    <trip depart="33.25" departLane="best" departSpeed="max" from="-30372790#5" id="veh84" to="-187427953#3" type="veh_passenger" />
    <trip depart="33.65" departLane="best" departSpeed="max" from="-30372743" id="veh85" to="E1" type="veh_passenger" />
    <trip depart="34.05" departLane="best" departSpeed="max" from="-190575213" id="veh86" to="461156825" type="veh_passenger" />
    <trip depart="34.18" departLane="best" departSpeed="max" from="-810605470#1" id="motorcycle7" to="253811301" type="motorcycle_motorcycle" />
    <trip depart="34.44" departLane="best" departSpeed="max" from="-31563254#2" id="veh87" to="189804179" type="veh_passenger" />
    <trip depart="34.84" departLane="best" departSpeed="max" from="95535723#0" id="veh88" to="E8" type="veh_passenger" />
    <trip depart="34.97" departLane="best" departSpeed="max" from="-232295189#4" id="bus6" to="-31887302#2" type="bus_bus" />
    <trip depart="35.23" departLane="best" departSpeed="max" from="-508253691" id="veh89" to="32911768" type="veh_passenger" />
    <trip depart="35.63" departLane="best" departSpeed="max" from="-188569287#2" id="veh90" to="130796848" type="veh_passenger" />
    <trip depart="36.03" departLane="best" departSpeed="max" from="96717915" id="veh91" to="30173659" type="veh_passenger" />
    <trip depart="36.42" departLane="best" departSpeed="max" from="-462651285" id="veh92" to="34761823" type="veh_passenger" />
    <trip depart="36.82" departLane="best" departSpeed="max" from="-156389209#4" id="veh93" to="30173664" type="veh_passenger" />
    <trip depart="37.21" departLane="best" departSpeed="max" from="-34156865#5" id="veh94" to="68254232#0" type="veh_passenger" />
    <trip depart="37.61" departLane="best" departSpeed="max" from="-188569287#2" id="veh95" to="96717941#2" type="veh_passenger" />
    <trip depart="38.01" departLane="best" departSpeed="max" from="-175410675#2" id="veh96" to="-552200375#4" type="veh_passenger" />
    <trip depart="38.40" departLane="best" departSpeed="max" from="-693089275#1" id="veh97" to="313240470#0" type="veh_passenger" />
    <trip depart="38.80" departLane="best" departSpeed="max" from="-190575074" id="veh98" to="-30375704" type="veh_passenger" />
    <trip depart="39.06" departLane="best" departSpeed="max" from="-190568641" id="motorcycle8" to="30173659" type="motorcycle_motorcycle" />
    <trip depart="39.19" departLane="best" departSpeed="max" from="32911731#2" id="veh99" to="-E3" type="veh_passenger" />
    <trip depart="39.59" departLane="best" departSpeed="max" from="-693089275#1" id="veh100" to="30372793" type="veh_passenger" />
    <trip depart="39.98" departLane="best" departSpeed="max" from="-30375691#3" id="veh101" to="30173664" type="veh_passenger" />
    <trip depart="40.38" departLane="best" departSpeed="max" from="-411114593" id="veh102" to="957625005" type="veh_passenger" />
    <trip depart="40.78" departLane="best" departSpeed="max" from="-190568620#1" id="veh103" to="32911768" type="veh_passenger" />
    <trip depart="40.80" departLane="best" departSpeed="max" from="30372739" id="bus7" to="30173631" type="bus_bus" />
    <trip depart="41.17" departLane="best" departSpeed="max" from="-190575074" id="veh104" to="187899747#0" type="veh_passenger" />
    <trip depart="41.57" departLane="best" departSpeed="max" from="-96705673#2" id="veh105" to="137724688#0" type="veh_passenger" />
    <trip depart="41.96" departLane="best" departSpeed="max" from="-211374403#2" id="veh106" to="34761823" type="veh_passenger" />
    <trip depart="42.36" departLane="best" departSpeed="max" from="-173938511" id="veh107" to="190568648#1" type="veh_passenger" />
    <trip depart="42.76" departLane="best" departSpeed="max" from="-190575213" id="veh108" to="95535757#0" type="veh_passenger" />
    <trip depart="43.15" departLane="best" departSpeed="max" from="32125952#0" id="veh109" to="70931810#0" type="veh_passenger" />
    <trip depart="43.55" departLane="best" departSpeed="max" from="-30173659" id="veh110" to="-32911737" type="veh_passenger" />
    <trip depart="43.94" departLane="best" departSpeed="max" from="189817823" id="motorcycle9" to="-104477959" type="motorcycle_motorcycle" />
    <trip depart="43.94" departLane="best" departSpeed="max" from="-784004278#1" id="veh111" to="E1" type="veh_passenger" />
    <trip depart="44.34" departLane="best" departSpeed="max" from="-93448753#3" id="veh112" to="-104477959" type="veh_passenger" />
    <trip depart="44.74" departLane="best" departSpeed="max" from="23495067" id="veh113" to="130796848" type="veh_passenger" />
    <trip depart="45.13" departLane="best" departSpeed="max" from="-953556834" id="veh114" to="96705681" type="veh_passenger" />
    <trip depart="45.53" departLane="best" departSpeed="max" from="-187899747#1" id="veh115" to="-30375704" type="veh_passenger" />
    <trip depart="45.92" departLane="best" departSpeed="max" from="-186137688" id="veh116" to="292477466" type="veh_passenger" />
    <trip depart="46.32" departLane="best" departSpeed="max" from="-190583531" id="veh117" to="30372788" type="veh_passenger" />
    <trip depart="46.71" departLane="best" departSpeed="max" from="-E1" id="veh118" to="-70931810#4" type="veh_passenger" />
    <trip depart="47.11" departLane="best" departSpeed="max" from="-902416879" id="veh119" to="101883745#1" type="veh_passenger" />
    <trip depart="47.51" departLane="best" departSpeed="max" from="-330480809#1" id="veh120" to="91084045#1" type="veh_passenger" />
    <trip depart="47.90" departLane="best" departSpeed="max" from="30406395#0" id="veh121" to="-190568717#0" type="veh_passenger" />
    <trip depart="48.30" departLane="best" departSpeed="max" from="-30375693" id="veh122" to="1117467078" type="veh_passenger" />
    <trip depart="48.69" departLane="best" departSpeed="max" from="-101883176#2" id="veh123" to="411114593" type="veh_passenger" />
    <trip depart="48.83" departLane="best" departSpeed="max" from="-211463851#3" id="motorcycle10" to="-32124684#0" type="motorcycle_motorcycle" />
    <trip depart="49.09" departLane="best" departSpeed="max" from="-905931358" id="veh124" to="101883663" type="veh_passenger" />
    <trip depart="49.49" departLane="best" departSpeed="max" from="1154599250" id="veh125" to="292477466" type="veh_passenger" />
    <trip depart="49.88" departLane="best" departSpeed="max" from="-30375693" id="veh126" to="-104477959" type="veh_passenger" />
    <trip depart="50.28" departLane="best" departSpeed="max" from="-173938511" id="veh127" to="784004278#1" type="veh_passenger" />
    <trip depart="50.67" departLane="best" departSpeed="max" from="-188339854#0" id="veh128" to="-31583018#0" type="veh_passenger" />
    <trip depart="51.07" departLane="best" departSpeed="max" from="-211367329#1" id="veh129" to="902368455#0" type="veh_passenger" />
    <trip depart="51.47" departLane="best" departSpeed="max" from="192485198#0" id="veh130" to="693085908" type="veh_passenger" />
    <trip depart="51.86" departLane="best" departSpeed="max" from="32911752#0" id="veh131" to="-95535723#0" type="veh_passenger" />
    <trip depart="52.26" departLane="best" departSpeed="max" from="-190575121" id="veh132" to="-217887388#1" type="veh_passenger" />
    <trip depart="52.46" departLane="best" departSpeed="max" from="23495067" id="bus9" to="30173637" type="bus_bus" />
    <trip depart="52.65" departLane="best" departSpeed="max" from="187679452#0" id="veh133" to="784004278#1" type="veh_passenger" />
    <trip depart="53.05" departLane="best" departSpeed="max" from="-188569287#2" id="veh134" to="95535757#0" type="veh_passenger" />
    <trip depart="53.44" departLane="best" departSpeed="max" from="31583018#0" id="veh135" to="E0" type="veh_passenger" />
    <trip depart="53.71" departLane="best" departSpeed="max" from="187679452#0" id="motorcycle11" to="330480809#1" type="motorcycle_motorcycle" />
    <trip depart="53.84" departLane="best" departSpeed="max" from="23495067" id="veh136" to="784004278#1" type="veh_passenger" />
    <trip depart="54.24" departLane="best" departSpeed="max" from="-1117467078" id="veh137" to="34156860" type="veh_passenger" />
    <trip depart="54.63" departLane="best" departSpeed="max" from="-232295189#4" id="veh138" to="95535757#0" type="veh_passenger" />
    <trip depart="55.03" departLane="best" departSpeed="max" from="217887388#0" id="veh139" to="693089275#1" type="veh_passenger" />
    <trip depart="55.42" departLane="best" departSpeed="max" from="23495067" id="veh140" to="101883745#1" type="veh_passenger" />
    <trip depart="55.82" departLane="best" departSpeed="max" from="189817823" id="veh141" to="-30372714#2" type="veh_passenger" />
    <trip depart="56.22" departLane="best" departSpeed="max" from="31887302#0" id="veh142" to="693085908" type="veh_passenger" />
    <trip depart="56.61" departLane="best" departSpeed="max" from="-190568651#1" id="veh143" to="60292289" type="veh_passenger" />
    <trip depart="57.01" departLane="best" departSpeed="max" from="-31989676#1" id="veh144" to="137724688#0" type="veh_passenger" />
    <trip depart="57.40" departLane="best" departSpeed="max" from="192485198#0" id="veh145" to="-96717944#1" type="veh_passenger" />
    <trip depart="57.80" departLane="best" departSpeed="max" from="-1117467078" id="veh146" to="-693089275#0" type="veh_passenger" />
    <trip depart="58.20" departLane="best" departSpeed="max" from="-222335167" id="veh147" to="693089275#1" type="veh_passenger" />
    <trip depart="58.29" departLane="best" departSpeed="max" from="-188336209" id="bus10" to="32618059#0" type="bus_bus" />
    <trip depart="58.59" departLane="best" departSpeed="max" from="-355419955#2" id="motorcycle12" to="96717941#2" type="motorcycle_motorcycle" />
    <trip depart="58.59" departLane="best" departSpeed="max" from="96717915" id="veh148" to="1117467078" type="veh_passenger" />
    <trip depart="58.99" departLane="best" departSpeed="max" from="-91084045#1" id="veh149" to="187899747#0" type="veh_passenger" />
    <trip depart="59.38" departLane="best" departSpeed="max" from="96717944#0" id="veh150" to="253811301" type="veh_passenger" />
    <trip depart="59.78" departLane="best" departSpeed="max" from="609563228#0" id="veh151" to="-30375704" type="veh_passenger" />
    <trip depart="60.17" departLane="best" departSpeed="max" from="96717915" id="veh152" to="-482680679#0" type="veh_passenger" />
    <trip depart="60.57" departLane="best" departSpeed="max" from="96717908" id="veh153" to="101883745#1" type="veh_passenger" />
    <trip depart="60.97" departLane="best" departSpeed="max" from="-186137688" id="veh154" to="189817827" type="veh_passenger" />
    <trip depart="61.36" departLane="best" departSpeed="max" from="1011655943#0" id="veh155" to="155783436#0" type="veh_passenger" />
    <trip depart="61.76" departLane="best" departSpeed="max" from="-784004246#1" id="veh156" to="222335167" type="veh_passenger" />
    <trip depart="62.15" departLane="best" departSpeed="max" from="-30372753" id="veh157" to="30173659" type="veh_passenger" />
    <trip depart="62.55" departLane="best" departSpeed="max" from="-461156825" id="veh158" to="330480809#1" type="veh_passenger" />
    <trip depart="62.95" departLane="best" departSpeed="max" from="1154599250" id="veh159" to="313240470#0" type="veh_passenger" />
    <trip depart="63.34" departLane="best" departSpeed="max" from="-953556834" id="veh160" to="156389212#1" type="veh_passenger" />
    <trip depart="63.47" departLane="best" departSpeed="max" from="217887388#0" id="motorcycle13" to="30372788" type="motorcycle_motorcycle" />
    <trip depart="63.74" departLane="best" departSpeed="max" from="-211374403#2" id="veh161" to="636485111" type="veh_passenger" />
    <trip depart="64.12" departLane="best" departSpeed="max" from="-187899748#3" id="bus11" to="173938511" type="bus_bus" />
    <trip depart="64.13" departLane="best" departSpeed="max" from="-E1" id="veh162" to="137724688#0" type="veh_passenger" />
    <trip depart="64.53" departLane="best" departSpeed="max" from="-211367329#1" id="veh163" to="188336209" type="veh_passenger" />
    <trip depart="64.93" departLane="best" departSpeed="max" from="-30372790#5" id="veh164" to="130796848" type="veh_passenger" />
    <trip depart="65.32" departLane="best" from="609563228#2" id="veh165" to="314690778#0" type="veh_passenger" />
    <trip depart="65.72" departLane="best" departSpeed="max" from="32911752#0" id="veh166" to="30372790#5" type="veh_passenger" />
    <trip depart="66.11" departLane="best" departSpeed="max" from="-192485204#3" id="veh167" to="284313254#0" type="veh_passenger" />
    <trip depart="66.51" departLane="best" departSpeed="max" from="-101883176#2" id="veh168" to="128212959#0" type="veh_passenger" />
    <trip depart="66.91" departLane="best" departSpeed="max" from="-30375695#1" id="veh169" to="30173659" type="veh_passenger" />
    <trip depart="67.30" departLane="best" departSpeed="max" from="-30413451" id="veh170" to="-96717908" type="veh_passenger" />
    <trip depart="67.70" departLane="best" departSpeed="max" from="-32911753#1.15" id="veh171" to="902416879" type="veh_passenger" />
    <trip depart="68.09" departLane="best" departSpeed="max" from="192485198#0" id="veh172" to="-32911764#1" type="veh_passenger" />
    <trip depart="68.36" departLane="best" departSpeed="max" from="-96705673#2" id="motorcycle14" to="-156062331" type="motorcycle_motorcycle" />
    <trip depart="68.49" departLane="best" departSpeed="max" from="-185309157" id="veh173" to="232295212" type="veh_passenger" />
    <trip depart="68.88" departLane="best" departSpeed="max" from="-902416879" id="veh174" to="156389212#1" type="veh_passenger" />
    <trip depart="69.28" departLane="best" departSpeed="max" from="-96705673#2" id="veh175" to="-96717944#1" type="veh_passenger" />
    <trip depart="69.68" departLane="best" departSpeed="max" from="-190568619" id="veh176" to="-137724783" type="veh_passenger" />
    <trip depart="70.07" departLane="best" departSpeed="max" from="30406398" id="veh177" to="-189817823" type="veh_passenger" />
    <trip depart="70.47" departLane="best" departSpeed="max" from="-190568619" id="veh178" to="32911734" type="veh_passenger" />
    <trip depart="70.86" departLane="best" departSpeed="max" from="-33232923" id="veh179" to="-E2" type="veh_passenger" />
    <trip depart="71.26" departLane="best" departSpeed="max" from="-93448753#3" id="veh180" to="-1011655943#3" type="veh_passenger" />
    <trip depart="71.66" departLane="best" departSpeed="max" from="137724783" id="veh181" to="411114593" type="veh_passenger" />
    <trip depart="72.05" departLane="best" departSpeed="max" from="-186137688" id="veh182" to="189804179" type="veh_passenger" />
    <trip depart="72.45" departLane="best" departSpeed="max" from="-190561840" id="veh183" to="96717940" type="veh_passenger" />
    <trip depart="72.84" departLane="best" departSpeed="max" from="-190575121" id="veh184" to="636485111" type="veh_passenger" />
    <trip depart="73.24" departLane="best" departSpeed="max" from="-784004246#1" id="motorcycle15" to="185309413#1" type="motorcycle_motorcycle" />
    <trip depart="73.24" departLane="best" departSpeed="max" from="-953808102" id="veh185" to="E1" type="veh_passenger" />
    <trip depart="73.64" departLane="best" departSpeed="max" from="-693089275#1" id="veh186" to="96717902" type="veh_passenger" />
    <trip depart="74.03" departLane="best" departSpeed="max" from="32911731#2" id="veh187" to="30372790#5" type="veh_passenger" />
    <trip depart="74.43" departLane="best" departSpeed="max" from="-E1" id="veh188" to="211463851#3" type="veh_passenger" />
    <trip depart="74.82" departLane="best" departSpeed="max" from="32911737" id="veh189" to="34761823" type="veh_passenger" />
    <trip depart="75.22" departLane="best" departSpeed="max" from="-32911753#1.15" id="veh190" to="101883663" type="veh_passenger" />
    <trip depart="75.61" departLane="best" departSpeed="max" from="-190575121" id="veh191" to="30375693" type="veh_passenger" />
    <trip depart="75.77" departLane="best" departSpeed="max" from="-190568619" id="bus13" to="-156062331" type="bus_bus" />
    <trip depart="76.01" departLane="best" departSpeed="max" from="186137743#0" id="veh192" to="232295555" type="veh_passenger" />
    <trip depart="76.41" departLane="best" departSpeed="max" from="-851208065" id="veh193" to="101883772" type="veh_passenger" />
    <trip depart="76.80" departLane="best" departSpeed="max" from="-175410675#2" id="veh194" to="128212959#0" type="veh_passenger" />
    <trip depart="77.20" departLane="best" departSpeed="max" from="-190583531" id="veh195" to="156389194" type="veh_passenger" />