<?xml version="1.0" encoding="UTF-8"?>

<!-- generated on 2024-03-01 10:44:10 by Eclipse SUMO netedit Version 1.15.0
<configuration xmlns:xsi="http://www.w3.org/2001/XMLSchema-instance" xsi:noNamespaceSchemaLocation="http://sumo.dlr.de/xsd/netconvertConfiguration.xsd">

    <input>
        <sumo-net-file value="D:\Univerzita\cloud\druhy_rocnik\RESCO-main_vanilla\environments\zilina12\zilina12.net.xml"/>
    </input>

    <output>
        <output-file value="D:\Univerzita\cloud\druhy_rocnik\RESCO-main_vanilla\environments\zilina12\zilina12.net.xml"/>
        <output.street-names value="true"/>
    </output>

    <processing>
        <geometry.min-radius.fix.railways value="false"/>
        <geometry.max-grade.fix value="false"/>
        <offset.disable-normalization value="true"/>
        <lefthand value="0"/>
    </processing>

    <junctions>
        <no-turnarounds value="true"/>
        <junctions.corner-detail value="5"/>
        <junctions.limit-turn-speed value="5.50"/>
        <rectangular-lane-cut value="0"/>
    </junctions>

    <pedestrian>
        <walkingareas value="0"/>
    </pedestrian>

</configuration>
-->

<net version="1.9" junctionCornerDetail="5" limitTurnSpeed="5.50" xmlns:xsi="http://www.w3.org/2001/XMLSchema-instance" xsi:noNamespaceSchemaLocation="http://sumo.dlr.de/xsd/net_file.xsd">

    <location netOffset="-332298.40,-5449759.63" convBoundary="143.60,168.38,6558.83,6539.82" origBoundary="18.688180,49.179112,18.813368,49.241405" projParameter="+proj=utm +zone=34 +ellps=WGS84 +datum=WGS84 +units=m +no_defs"/>

    <type id="highway.living_street" priority="2" numLanes="1" speed="2.78" disallow="tram rail_urban rail rail_electric rail_fast ship" oneway="0"/>
    <type id="highway.primary" priority="12" numLanes="2" speed="27.78" disallow="tram rail_urban rail rail_electric rail_fast ship" oneway="0"/>
    <type id="highway.primary_link" priority="7" numLanes="1" speed="22.22" disallow="tram rail_urban rail rail_electric rail_fast ship" oneway="0"/>
    <type id="highway.residential" priority="3" numLanes="1" speed="13.89" disallow="tram rail_urban rail rail_electric rail_fast ship" oneway="0"/>
    <type id="highway.secondary" priority="11" numLanes="1" speed="27.78" disallow="tram rail_urban rail rail_electric rail_fast ship" oneway="0"/>
    <type id="highway.secondary_link" priority="6" numLanes="1" speed="22.22" disallow="tram rail_urban rail rail_electric rail_fast ship" oneway="0"/>
    <type id="highway.service" priority="1" numLanes="1" speed="5.56" allow="pedestrian delivery bicycle" oneway="0"/>
    <type id="highway.tertiary" priority="10" numLanes="1" speed="22.22" disallow="tram rail_urban rail rail_electric rail_fast ship" oneway="0"/>
    <type id="highway.trunk" priority="13" numLanes="2" speed="27.78" disallow="pedestrian bicycle tram rail_urban rail rail_electric rail_fast ship" oneway="0"/>
    <type id="highway.unclassified" priority="4" numLanes="1" speed="13.89" disallow="tram rail_urban rail rail_electric rail_fast ship" oneway="0"/>

    <edge id=":10007059273_0" function="internal">
        <lane id=":10007059273_0_0" index="0" disallow="tram rail_urban rail rail_electric rail_fast ship" speed="13.89" length="9.28" shape="3197.13,5918.30 3199.28,5916.59 3200.91,5915.61 3202.51,5914.60 3204.59,5912.82"/>
    </edge>
    <edge id=":10007059273_1" function="internal">
        <lane id=":10007059273_1_0" index="0" disallow="tram rail_urban rail rail_electric rail_fast ship" speed="13.89" length="9.10" shape="3199.27,5920.68 3201.33,5918.95 3202.85,5917.90 3204.45,5916.96 3206.75,5915.54"/>
    </edge>
    <edge id=":10007145453_0" function="internal">
        <lane id=":10007145453_0_0" index="0" disallow="tram rail_urban rail rail_electric rail_fast ship" speed="6.99" length="7.18" shape="3230.12,5882.81 3231.50,5884.31 3232.99,5885.27 3234.59,5885.68 3236.31,5885.55"/>
    </edge>
    <edge id=":10007145453_1" function="internal">
        <lane id=":10007145453_1_0" index="0" disallow="tram rail_urban rail rail_electric rail_fast ship" speed="12.15" length="8.15" shape="3228.98,5888.60 3230.75,5887.05 3232.23,5886.34 3233.92,5886.00 3236.31,5885.55"/>
    </edge>
    <edge id=":10007145458_0" function="internal">
        <lane id=":10007145458_0_0" index="0" disallow="tram rail_urban rail rail_electric rail_fast ship" speed="7.70" length="7.04" shape="3242.55,5912.98 3241.25,5913.53 3240.06,5914.56 3239.00,5916.07 3238.05,5918.06"/>
    </edge>
    <edge id=":10007145458_1" function="internal">
        <lane id=":10007145458_1_0" index="0" disallow="tram rail_urban rail rail_electric rail_fast ship" speed="12.18" length="8.09" shape="3242.55,5912.98 3240.22,5913.60 3238.56,5914.02 3236.93,5914.03 3234.67,5913.40"/>
    </edge>
    <edge id=":10007145462_0" function="internal">
        <lane id=":10007145462_0_0" index="0" disallow="tram rail_urban rail rail_electric rail_fast ship" speed="7.65" length="6.63" shape="3245.57,5887.79 3246.83,5888.44 3248.31,5888.72 3250.02,5888.62 3251.96,5888.16"/>
    </edge>
    <edge id=":10007145462_1" function="internal">
        <lane id=":10007145462_1_0" index="0" disallow="tram rail_urban rail rail_electric rail_fast ship" speed="11.51" length="7.23" shape="3245.57,5887.79 3247.35,5889.01 3248.58,5889.90 3249.52,5891.02 3250.41,5892.91"/>
    </edge>
    <edge id=":10007145466_0" function="internal">
        <lane id=":10007145466_0_0" index="0" disallow="tram rail_urban rail rail_electric rail_fast ship" speed="13.89" length="7.46" shape="3224.11,5896.62 3224.39,5894.47 3224.23,5892.97 3223.75,5891.48 3223.10,5889.36"/>
    </edge>
    <edge id=":10007145466_1" function="internal">
        <lane id=":10007145466_1_0" index="0" disallow="tram rail_urban rail rail_electric rail_fast ship" speed="11.76" length="7.52" shape="3224.11,5896.62 3224.59,5894.46 3225.12,5893.00 3225.99,5891.73 3227.50,5890.11"/>
    </edge>
    <edge id=":10007145467_0" function="internal">
        <lane id=":10007145467_0_0" index="0" disallow="tram rail_urban rail rail_electric rail_fast ship" speed="11.36" length="7.08" shape="3225.61,5906.76 3224.48,5905.05 3224.01,5903.70 3223.89,5902.21 3223.78,5900.11"/>
    </edge>
    <edge id=":10007145467_1" function="internal">
        <lane id=":10007145467_1_0" index="0" disallow="tram rail_urban rail rail_electric rail_fast ship" speed="7.83" length="6.54" shape="3220.88,5905.74 3222.23,5904.28 3223.16,5902.85 3223.68,5901.46 3223.78,5900.11"/>
    </edge>
    <edge id=":10111801264_0" function="internal">
        <lane id=":10111801264_0_0" index="0" allow="private emergency authority vip pedestrian passenger hov taxi motorcycle moped bicycle evehicle custom1 custom2" speed="11.11" length="0.27" shape="3962.58,3141.87 3962.33,3141.96"/>
    </edge>
    <edge id=":10111801264_1" function="internal">
        <lane id=":10111801264_1_0" index="0" allow="private emergency authority vip pedestrian passenger hov taxi motorcycle moped bicycle evehicle custom1 custom2" speed="11.11" length="0.31" shape="3961.22,3138.96 3961.51,3138.85"/>
    </edge>
    <edge id=":10197823991_0" function="internal">
        <lane id=":10197823991_0_0" index="0" disallow="tram rail_urban rail rail_electric rail_fast ship" speed="3.65" length="4.67" shape="2988.35,6041.72 2987.03,6041.14 2986.49,6040.42 2986.75,6039.56 2987.79,6038.56"/>
    </edge>
    <edge id=":10220350881_0" function="internal">
        <lane id=":10220350881_0_0" index="0" disallow="tram rail_urban rail rail_electric rail_fast ship" speed="13.89" length="14.40" shape="5979.10,2739.31 5965.91,2733.55"/>
    </edge>
    <edge id=":10220350881_1" function="internal">
        <lane id=":10220350881_1_0" index="0" disallow="tram rail_urban rail rail_electric rail_fast ship" speed="7.98" length="4.07" shape="5979.10,2739.31 5975.78,2737.26 5975.68,2737.12"/>
    </edge>
    <edge id=":10220350881_6" function="internal">
        <lane id=":10220350881_6_0" index="0" disallow="tram rail_urban rail rail_electric rail_fast ship" speed="7.98" length="10.16" shape="5975.68,2737.12 5973.92,2734.64 5973.54,2731.45 5974.62,2727.69"/>
    </edge>
    <edge id=":10220350881_2" function="internal">
        <lane id=":10220350881_2_0" index="0" disallow="tram rail_urban rail rail_electric rail_fast ship" speed="6.48" length="9.03" shape="5977.54,2729.01 5976.85,2731.39 5977.10,2733.41 5978.27,2735.08 5980.38,2736.38"/>
    </edge>
    <edge id=":10220350881_3" function="internal">
        <lane id=":10220350881_3_0" index="0" disallow="tram rail_urban rail rail_electric rail_fast ship" speed="8.04" length="14.21" shape="5977.54,2729.01 5975.46,2732.31 5972.82,2734.16 5969.64,2734.58 5965.91,2733.55"/>
    </edge>
    <edge id=":10220350881_4" function="internal">
        <lane id=":10220350881_4_0" index="0" disallow="tram rail_urban rail rail_electric rail_fast ship" speed="6.55" length="9.09" shape="5967.19,2730.62 5969.57,2731.27 5971.60,2731.00 5973.29,2729.81 5974.62,2727.69"/>
    </edge>
    <edge id=":10220350881_5" function="internal">
        <lane id=":10220350881_5_0" index="0" disallow="tram rail_urban rail rail_electric rail_fast ship" speed="13.89" length="14.40" shape="5967.19,2730.62 5980.38,2736.38"/>
    </edge>
    <edge id=":10220350888_0" function="internal">
        <lane id=":10220350888_0_0" index="0" disallow="tram rail_urban rail rail_electric rail_fast ship" speed="3.65" length="4.67" shape="6039.57,2686.26 6040.89,2685.67 6041.78,2685.75 6042.24,2686.52 6042.29,2687.96"/>
    </edge>
    <edge id=":10288031841_0" function="internal">
        <lane id=":10288031841_0_0" index="0" disallow="tram rail_urban rail rail_electric rail_fast ship" speed="20.84" length="3.00" shape="2520.02,3932.74 2520.20,3935.74"/>
    </edge>
    <edge id=":10288031841_1" function="internal">
        <lane id=":10288031841_1_0" index="0" disallow="tram rail_urban rail rail_electric rail_fast ship" speed="27.78" length="3.00" shape="2516.79,3932.97 2517.00,3935.96"/>
        <lane id=":10288031841_1_1" index="1" disallow="tram rail_urban rail rail_electric rail_fast ship" speed="27.78" length="3.00" shape="2513.60,3933.19 2513.81,3936.18"/>
    </edge>
    <edge id=":10288105163_0" function="internal">
        <lane id=":10288105163_0_0" index="0" disallow="tram rail_urban rail rail_electric rail_fast ship" speed="13.89" length="14.40" shape="5016.55,4173.25 5019.72,4172.29 5022.82,4172.13 5026.28,4171.77 5030.51,4170.24"/>
    </edge>
    <edge id=":10288105163_1" function="internal">
        <lane id=":10288105163_1_0" index="0" disallow="tram rail_urban rail rail_electric rail_fast ship" speed="13.89" length="14.71" shape="5017.45,4177.03 5030.51,4170.24"/>
        <lane id=":10288105163_1_1" index="1" disallow="tram rail_urban rail rail_electric rail_fast ship" speed="13.89" length="14.71" shape="5018.93,4179.87 5031.97,4173.08"/>
    </edge>
    <edge id=":10573001235_0" function="internal">
        <lane id=":10573001235_0_0" index="0" allow="private emergency authority vip pedestrian passenger hov taxi motorcycle moped bicycle evehicle custom1 custom2" speed="3.65" length="4.67" shape="3026.68,2632.07 3027.91,2632.82 3028.34,2633.61 3027.97,2634.42 3026.80,2635.27"/>
    </edge>
    <edge id=":1083364153_0" function="internal">
        <lane id=":1083364153_0_0" index="0" disallow="tram rail_urban rail rail_electric rail_fast ship" speed="6.51" length="8.97" shape="4985.99,2792.77 4983.70,2791.87 4981.67,2791.92 4979.90,2792.91 4978.38,2794.84"/>
    </edge>
    <edge id=":1083364153_1" function="internal">
        <lane id=":1083364153_1_0" index="0" disallow="tram rail_urban rail rail_electric rail_fast ship" speed="13.89" length="14.30" shape="4985.99,2792.77 4973.62,2785.60"/>
    </edge>
    <edge id=":1083364153_2" function="internal">
        <lane id=":1083364153_2_0" index="0" disallow="tram rail_urban rail rail_electric rail_fast ship" speed="13.89" length="14.23" shape="4975.25,2782.85 4987.57,2789.99"/>
    </edge>
    <edge id=":1083364153_3" function="internal">
        <lane id=":1083364153_3_0" index="0" disallow="tram rail_urban rail rail_electric rail_fast ship" speed="8.00" length="3.98" shape="4975.25,2782.85 4978.26,2785.26 4978.32,2785.37"/>
    </edge>
    <edge id=":1083364153_6" function="internal">
        <lane id=":1083364153_6_0" index="0" disallow="tram rail_urban rail rail_electric rail_fast ship" speed="8.00" length="10.11" shape="4978.32,2785.37 4979.78,2788.06 4979.82,2791.25 4978.38,2794.84"/>
    </edge>
    <edge id=":1083364153_4" function="internal">
        <lane id=":1083364153_4_0" index="0" disallow="tram rail_urban rail rail_electric rail_fast ship" speed="6.51" length="8.97" shape="4975.61,2793.23 4976.53,2790.95 4976.50,2788.92 4975.53,2787.14 4973.62,2785.60"/>
    </edge>
    <edge id=":1083364153_5" function="internal">
        <lane id=":1083364153_5_0" index="0" disallow="tram rail_urban rail rail_electric rail_fast ship" speed="8.00" length="14.10" shape="4975.61,2793.23 4978.00,2790.20 4980.78,2788.65 4983.97,2788.58 4987.57,2789.99"/>
    </edge>
    <edge id=":1083664258_0" function="internal">
        <lane id=":1083664258_0_0" index="0" disallow="tram rail_urban rail rail_electric rail_fast ship" speed="13.89" length="8.16" shape="1452.92,5507.90 1450.63,5508.52 1449.17,5509.33 1447.72,5510.17 1445.44,5510.88"/>
        <lane id=":1083664258_0_1" index="1" disallow="tram rail_urban rail rail_electric rail_fast ship" speed="13.89" length="8.16" shape="1452.41,5504.74 1450.08,5505.37 1448.60,5506.18 1447.12,5507.03 1444.81,5507.75"/>
    </edge>
    <edge id=":1083664292_0" function="internal">
        <lane id=":1083664292_0_0" index="0" disallow="tram rail_urban rail rail_electric rail_fast ship" speed="7.30" length="10.11" shape="1376.51,5534.83 1374.81,5532.39 1372.87,5530.90 1370.69,5530.34 1368.28,5530.72"/>
    </edge>
    <edge id=":1083664292_1" function="internal">
        <lane id=":1083664292_1_0" index="0" disallow="tram rail_urban rail rail_electric rail_fast ship" speed="6.10" length="9.06" shape="1382.20,5526.37 1379.87,5527.43 1378.61,5528.94 1378.43,5530.90 1379.32,5533.30"/>
    </edge>
    <edge id=":1083664292_2" function="internal">
        <lane id=":1083664292_2_0" index="0" disallow="tram rail_urban rail rail_electric rail_fast ship" speed="16.66" length="14.65" shape="1382.20,5526.37 1368.28,5530.72"/>
        <lane id=":1083664292_2_1" index="1" disallow="tram rail_urban rail rail_electric rail_fast ship" speed="16.66" length="14.65" shape="1381.30,5523.29 1367.26,5527.69"/>
    </edge>
    <edge id=":1083664351_0" function="internal">
        <lane id=":1083664351_0_0" index="0" disallow="tram rail_urban rail rail_electric rail_fast ship" speed="13.89" length="8.15" shape="1508.76,5501.28 1506.40,5501.85 1504.87,5502.59 1503.34,5503.31 1500.97,5503.80"/>
        <lane id=":1083664351_0_1" index="1" disallow="tram rail_urban rail rail_electric rail_fast ship" speed="13.89" length="8.15" shape="1508.34,5498.11 1506.01,5498.67 1504.50,5499.41 1502.99,5500.13 1500.66,5500.61"/>
        <lane id=":1083664351_0_2" index="2" disallow="tram rail_urban rail rail_electric rail_fast ship" speed="13.89" length="8.15" shape="1508.34,5498.11 1505.97,5498.17 1504.35,5497.82 1502.72,5497.44 1500.34,5497.43"/>
    </edge>
    <edge id=":1083664360_0" function="internal">
        <lane id=":1083664360_0_0" index="0" disallow="tram rail_urban rail rail_electric rail_fast ship" speed="6.51" length="8.96" shape="828.85,6117.82 826.94,6116.27 825.00,6115.71 823.01,6116.11 820.98,6117.49"/>
    </edge>
    <edge id=":1083664360_1" function="internal">
        <lane id=":1083664360_1_0" index="0" disallow="tram rail_urban rail rail_electric rail_fast ship" speed="6.63" length="9.06" shape="831.21,6107.61 829.77,6109.58 829.29,6111.58 829.76,6113.60 831.19,6115.64"/>
    </edge>
    <edge id=":1083664360_2" function="internal">
        <lane id=":1083664360_2_0" index="0" disallow="tram rail_urban rail rail_electric rail_fast ship" speed="13.89" length="14.12" shape="831.21,6107.61 820.98,6117.49"/>
        <lane id=":1083664360_2_1" index="1" disallow="tram rail_urban rail rail_electric rail_fast ship" speed="13.89" length="14.12" shape="828.91,6105.38 818.83,6115.12"/>
    </edge>
    <edge id=":1107815253_0" function="internal">
        <lane id=":1107815253_0_0" index="0" disallow="tram rail_urban rail rail_electric rail_fast ship" speed="13.89" length="14.40" shape="4940.53,3015.32 4928.10,3008.05"/>
    </edge>
    <edge id=":1107815253_1" function="internal">
        <lane id=":1107815253_1_0" index="0" disallow="tram rail_urban rail rail_electric rail_fast ship" speed="8.02" length="4.07" shape="4940.53,3015.32 4937.49,3012.92 4937.40,3012.75"/>
    </edge>
    <edge id=":1107815253_6" function="internal">
        <lane id=":1107815253_6_0" index="0" disallow="tram rail_urban rail rail_electric rail_fast ship" speed="8.02" length="10.14" shape="4937.40,3012.75 4935.95,3010.10 4935.91,3006.89 4937.36,3003.27"/>
    </edge>
    <edge id=":1107815253_2" function="internal">
        <lane id=":1107815253_2_0" index="0" disallow="tram rail_urban rail rail_electric rail_fast ship" speed="6.53" length="9.07" shape="4940.13,3004.86 4939.20,3007.18 4939.23,3009.23 4940.21,3011.03 4942.14,3012.56"/>
    </edge>
    <edge id=":1107815253_3" function="internal">
        <lane id=":1107815253_3_0" index="0" disallow="tram rail_urban rail rail_electric rail_fast ship" speed="7.99" length="14.22" shape="4940.13,3004.86 4937.73,3007.93 4934.92,3009.49 4931.71,3009.53 4928.10,3008.05"/>
    </edge>
    <edge id=":1107815253_4" function="internal">
        <lane id=":1107815253_4_0" index="0" disallow="tram rail_urban rail rail_electric rail_fast ship" speed="6.49" length="9.03" shape="4929.72,3005.29 4932.01,3006.23 4934.05,3006.20 4935.83,3005.21 4937.36,3003.27"/>
    </edge>
    <edge id=":1107815253_5" function="internal">
        <lane id=":1107815253_5_0" index="0" disallow="tram rail_urban rail rail_electric rail_fast ship" speed="13.89" length="14.40" shape="4929.72,3005.29 4942.14,3012.56"/>
    </edge>
    <edge id=":1107815425_0" function="internal">
        <lane id=":1107815425_0_0" index="0" disallow="tram rail_urban rail rail_electric rail_fast ship" speed="6.58" length="9.09" shape="4899.38,3273.80 4898.48,3276.13 4898.52,3278.20 4899.51,3280.01 4901.43,3281.55"/>
    </edge>
    <edge id=":1107815425_1" function="internal">
        <lane id=":1107815425_1_0" index="0" disallow="tram rail_urban rail rail_electric rail_fast ship" speed="6.51" length="9.03" shape="4888.97,3274.42 4891.28,3275.30 4893.32,3275.24 4895.09,3274.22 4896.59,3272.25"/>
    </edge>
    <edge id=":1107815425_2" function="internal">
        <lane id=":1107815425_2_0" index="0" disallow="tram rail_urban rail rail_electric rail_fast ship" speed="13.89" length="14.26" shape="4888.97,3274.42 4901.43,3281.55"/>
        <lane id=":1107815425_2_1" index="1" disallow="tram rail_urban rail rail_electric rail_fast ship" speed="13.89" length="14.26" shape="4887.42,3277.22 4899.80,3284.31"/>
        <lane id=":1107815425_2_2" index="2" disallow="tram rail_urban rail rail_electric rail_fast ship" speed="13.89" length="14.26" shape="4885.87,3280.02 4898.17,3287.06"/>
    </edge>
    <edge id=":1107815468_0" function="internal">
        <lane id=":1107815468_0_0" index="0" disallow="tram rail_urban rail rail_electric rail_fast ship" speed="13.89" length="0.30" shape="4952.74,3295.77 4952.47,3295.62"/>
    </edge>
    <edge id=":1107815468_1" function="internal">
        <lane id=":1107815468_1_0" index="0" disallow="tram rail_urban rail rail_electric rail_fast ship" speed="13.89" length="0.29" shape="4954.07,3292.85 4954.32,3292.99"/>
    </edge>
    <edge id=":1107815717_0" function="internal">
        <lane id=":1107815717_0_0" index="0" disallow="tram rail_urban rail rail_electric rail_fast ship" speed="6.52" length="9.05" shape="5079.68,3028.62 5077.38,3027.67 5075.33,3027.68 5073.53,3028.65 5071.97,3030.58"/>
    </edge>
    <edge id=":1107815717_1" function="internal">
        <lane id=":1107815717_1_0" index="0" disallow="tram rail_urban rail rail_electric rail_fast ship" speed="7.99" length="14.21" shape="5079.68,3028.62 5076.63,3026.19 5075.10,3023.37 5075.08,3020.16 5076.58,3016.56"/>
    </edge>
    <edge id=":1107815717_2" function="internal">
        <lane id=":1107815717_2_0" index="0" disallow="tram rail_urban rail rail_electric rail_fast ship" speed="6.50" length="9.03" shape="5079.33,3018.20 5078.38,3020.48 5078.39,3022.52 5079.36,3024.31 5081.30,3025.86"/>
    </edge>
    <edge id=":1107815717_3" function="internal">
        <lane id=":1107815717_3_0" index="0" disallow="tram rail_urban rail rail_electric rail_fast ship" speed="13.89" length="14.40" shape="5079.33,3018.20 5071.97,3030.58"/>
    </edge>
    <edge id=":1107815717_4" function="internal">
        <lane id=":1107815717_4_0" index="0" disallow="tram rail_urban rail rail_electric rail_fast ship" speed="13.89" length="14.40" shape="5069.22,3028.94 5076.58,3016.56"/>
    </edge>
    <edge id=":1107815717_5" function="internal">
        <lane id=":1107815717_5_0" index="0" disallow="tram rail_urban rail rail_electric rail_fast ship" speed="8.02" length="4.06" shape="5069.22,3028.94 5071.66,3025.92 5071.82,3025.83"/>
    </edge>
    <edge id=":1107815717_6" function="internal">
        <lane id=":1107815717_6_0" index="0" disallow="tram rail_urban rail rail_electric rail_fast ship" speed="8.02" length="10.14" shape="5071.82,3025.83 5074.48,3024.40 5077.70,3024.38 5081.30,3025.86"/>
    </edge>
    <edge id=":1107815729_0" function="internal">
        <lane id=":1107815729_0_0" index="0" disallow="tram rail_urban rail rail_electric rail_fast ship" speed="6.48" length="9.03" shape="4847.30,2960.76 4845.01,2959.83 4842.97,2959.85 4841.19,2960.85 4839.67,2962.81"/>
    </edge>
    <edge id=":1107815729_1" function="internal">
        <lane id=":1107815729_1_0" index="0" disallow="tram rail_urban rail rail_electric rail_fast ship" speed="13.89" length="14.40" shape="4847.30,2960.76 4834.87,2953.48"/>
    </edge>
    <edge id=":1107815729_2" function="internal">
        <lane id=":1107815729_2_0" index="0" disallow="tram rail_urban rail rail_electric rail_fast ship" speed="13.89" length="14.40" shape="4836.49,2950.72 4848.92,2958.00"/>
    </edge>
    <edge id=":1107815729_3" function="internal">
        <lane id=":1107815729_3_0" index="0" disallow="tram rail_urban rail rail_electric rail_fast ship" speed="8.05" length="4.05" shape="4836.49,2950.72 4839.52,2953.13 4839.60,2953.29"/>
    </edge>
    <edge id=":1107815729_6" function="internal">
        <lane id=":1107815729_6_0" index="0" disallow="tram rail_urban rail rail_electric rail_fast ship" speed="8.05" length="10.17" shape="4839.60,2953.29 4841.06,2955.95 4841.11,2959.18 4839.67,2962.81"/>
    </edge>
    <edge id=":1107815729_4" function="internal">
        <lane id=":1107815729_4_0" index="0" disallow="tram rail_urban rail rail_electric rail_fast ship" speed="6.56" length="9.10" shape="4836.89,2961.23 4837.81,2958.90 4837.79,2956.83 4836.81,2955.03 4834.87,2953.48"/>
    </edge>
    <edge id=":1107815729_5" function="internal">
        <lane id=":1107815729_5_0" index="0" disallow="tram rail_urban rail rail_electric rail_fast ship" speed="7.98" length="14.25" shape="4836.89,2961.23 4839.29,2958.14 4842.09,2956.57 4845.30,2956.52 4848.92,2958.00"/>
    </edge>
    <edge id=":1107815907_0" function="internal">
        <lane id=":1107815907_0_0" index="0" disallow="tram rail_urban rail rail_electric rail_fast ship" speed="6.48" length="9.03" shape="4907.91,3270.03 4905.61,3269.11 4903.58,3269.15 4901.81,3270.16 4900.31,3272.14"/>
    </edge>
    <edge id=":1107815907_1" function="internal">
        <lane id=":1107815907_1_0" index="0" disallow="tram rail_urban rail rail_electric rail_fast ship" speed="13.89" length="14.40" shape="4907.91,3270.03 4895.43,3262.85"/>
    </edge>
    <edge id=":1107815907_2" function="internal">
        <lane id=":1107815907_2_0" index="0" disallow="tram rail_urban rail rail_electric rail_fast ship" speed="13.89" length="14.40" shape="4897.02,3260.08 4909.51,3267.25"/>
    </edge>
    <edge id=":1107815907_3" function="internal">
        <lane id=":1107815907_3_0" index="0" disallow="tram rail_urban rail rail_electric rail_fast ship" speed="8.05" length="4.04" shape="4897.02,3260.08 4900.07,3262.46 4900.15,3262.62"/>
    </edge>
    <edge id=":1107815907_6" function="internal">
        <lane id=":1107815907_6_0" index="0" disallow="tram rail_urban rail rail_electric rail_fast ship" speed="8.05" length="10.17" shape="4900.15,3262.62 4901.63,3265.27 4901.71,3268.49 4900.31,3272.14"/>
    </edge>
    <edge id=":1107815907_4" function="internal">
        <lane id=":1107815907_4_0" index="0" disallow="tram rail_urban rail rail_electric rail_fast ship" speed="6.56" length="9.10" shape="4897.51,3270.58 4898.41,3268.24 4898.37,3266.18 4897.37,3264.38 4895.43,3262.85"/>
    </edge>
    <edge id=":1107815907_5" function="internal">
        <lane id=":1107815907_5_0" index="0" disallow="tram rail_urban rail rail_electric rail_fast ship" speed="7.98" length="14.25" shape="4897.51,3270.58 4899.88,3267.47 4902.67,3265.88 4905.88,3265.80 4909.51,3267.25"/>
    </edge>
    <edge id=":1107816833_0" function="internal">
        <lane id=":1107816833_0_0" index="0" disallow="tram rail_urban rail rail_electric rail_fast ship" speed="6.90" length="10.35" shape="5251.24,3481.64 5249.95,3484.54 5249.73,3487.00 5250.57,3489.05 5252.46,3490.66"/>
    </edge>
    <edge id=":1107816833_1" function="internal">
        <lane id=":1107816833_1_0" index="0" disallow="tram rail_urban rail rail_electric rail_fast ship" speed="6.50" length="9.03" shape="5240.82,3482.01 5243.11,3482.96 5245.15,3482.94 5246.94,3481.96 5248.48,3480.03"/>
    </edge>
    <edge id=":1107816833_2" function="internal">
        <lane id=":1107816833_2_0" index="0" disallow="tram rail_urban rail rail_electric rail_fast ship" speed="13.89" length="14.56" shape="5239.19,3484.77 5243.02,3486.74 5245.81,3487.74 5248.62,3488.73 5252.46,3490.66"/>
        <lane id=":1107816833_2_1" index="1" disallow="tram rail_urban rail rail_electric rail_fast ship" speed="13.89" length="14.56" shape="5237.57,3487.53 5241.40,3489.50 5244.20,3490.50 5247.01,3491.50 5250.87,3493.43"/>
    </edge>
    <edge id=":1107816869_0" function="internal">
        <lane id=":1107816869_0_0" index="0" disallow="tram rail_urban rail rail_electric rail_fast ship" speed="3.65" length="4.67" shape="4924.13,2888.53 4922.84,2889.17 4921.95,2889.11 4921.46,2888.37 4921.37,2886.93"/>
    </edge>
    <edge id=":1107816879_0" function="internal">
        <lane id=":1107816879_0_0" index="0" disallow="tram rail_urban rail rail_electric rail_fast ship" speed="3.65" length="4.67" shape="5142.48,3061.81 5143.11,3063.11 5143.05,3064.00 5142.30,3064.49 5140.86,3064.57"/>
    </edge>
    <edge id=":1107817079_0" function="internal">
        <lane id=":1107817079_0_0" index="0" disallow="tram rail_urban rail rail_electric rail_fast ship" speed="3.65" length="4.67" shape="4973.06,3303.65 4973.71,3304.94 4973.66,3305.83 4972.92,3306.33 4971.48,3306.43"/>
    </edge>
    <edge id=":1107817119_0" function="internal">
        <lane id=":1107817119_0_0" index="0" disallow="tram rail_urban rail rail_electric rail_fast ship" speed="3.65" length="4.67" shape="5154.97,3166.35 5156.27,3165.72 5157.16,3165.78 5157.65,3166.53 5157.73,3167.97"/>
    </edge>
    <edge id=":1119932942_0" function="internal">
        <lane id=":1119932942_0_0" index="0" disallow="tram rail_urban rail rail_electric rail_fast ship" speed="6.50" length="9.03" shape="5123.20,3237.89 5120.92,3236.95 5118.88,3236.97 5117.08,3237.94 5115.54,3239.88"/>
    </edge>
    <edge id=":1119932942_1" function="internal">
        <lane id=":1119932942_1_0" index="0" disallow="tram rail_urban rail rail_electric rail_fast ship" speed="8.01" length="14.20" shape="5123.20,3237.89 5120.16,3235.46 5118.63,3232.64 5118.59,3229.43 5120.06,3225.84"/>
    </edge>
    <edge id=":1119932942_2" function="internal">
        <lane id=":1119932942_2_0" index="0" disallow="tram rail_urban rail rail_electric rail_fast ship" speed="6.52" length="9.05" shape="5122.83,3227.46 5121.89,3229.75 5121.91,3231.79 5122.89,3233.59 5124.83,3235.14"/>
    </edge>
    <edge id=":1119932942_3" function="internal">
        <lane id=":1119932942_3_0" index="0" disallow="tram rail_urban rail rail_electric rail_fast ship" speed="13.89" length="14.40" shape="5122.83,3227.46 5115.54,3239.88"/>
    </edge>
    <edge id=":1119932942_4" function="internal">
        <lane id=":1119932942_4_0" index="0" disallow="tram rail_urban rail rail_electric rail_fast ship" speed="13.89" length="14.40" shape="5112.78,3238.26 5120.06,3225.84"/>
    </edge>
    <edge id=":1119932942_5" function="internal">
        <lane id=":1119932942_5_0" index="0" disallow="tram rail_urban rail rail_electric rail_fast ship" speed="8.00" length="4.07" shape="5112.78,3238.26 5115.21,3235.21 5115.36,3235.13"/>
    </edge>
    <edge id=":1119932942_6" function="internal">
        <lane id=":1119932942_6_0" index="0" disallow="tram rail_urban rail rail_electric rail_fast ship" speed="8.00" length="10.14" shape="5115.36,3235.13 5118.02,3233.68 5121.23,3233.65 5124.83,3235.14"/>
    </edge>
    <edge id=":1119932983_0" function="internal">