<routes>
    <vType id="bus_bus" vClass="bus"/>
    <vType id="motorcycle_motorcycle" vClass="motorcycle"/>
    <vType id="veh_passenger" vClass="passenger"/>
    <vType id="truck_truck" length="16.50" vClass="trailer"/>
    <trip id="motorcycle0" type="motorcycle_motorcycle" depart="0.00" departLane="best" from="-32911727#10" to="-32911727#5" />
    <trip id="truck_hore_1" type="truck_truck" depart="1.00" from="-232306715" to="34761823" via="31693048 355419953 85760478" />
	<trip id="veh1" type="veh_passenger" depart="1.22" departLane="best" departSpeed="max" from="-30375695#1" to="-552200375#4" />
    <trip id="veh2" type="veh_passenger" depart="2.44" departLane="best" from="30406384" to="-185254584#2" />
    <trip id="veh3" type="veh_passenger" depart="3.66" departLane="best" from="50900505#6" to="-190575138#0" />
    <trip id="truck_rovno_1" type="truck_truck" depart="4.00" from="-232306715" to="313240470#0" via="31693048 355419953 30408510 44600173" />
	<trip id="t_0" type="veh_passenger" depart="4.00" from="-34831706" to="314690778#0" />
    <trip id="veh5" type="veh_passenger" depart="6.09" departLane="best" departSpeed="max" from="-253845010" to="232295555" />
    <trip id="t_1" type="veh_passenger" depart="8.00" from="-34831706" to="-E2" />
    <trip id="veh7" type="veh_passenger" depart="8.53" departLane="best" departSpeed="max" from="23495067" to="29178406" />
    <trip id="truck_hore_2" type="truck_truck" depart="9.00" from="-232306715" to="34761823" via="31693048 355419953 85760478" />
	<trip id="veh8" type="veh_passenger" depart="9.75" departLane="best" from="-263931195" to="186347677#0" />
    <trip id="veh9" type="veh_passenger" depart="10.97" departLane="best" from="32125952#1" to="-104477959" />
    <trip id="truck_rovno_2" type="truck_truck" depart="12.00" from="-232306715" to="313240470#0" via="31693048 355419953 30408510 44600173" />
	<trip id="t_2" type="veh_passenger" depart="12.00" from="-34831706" to="-E2" />
    <trip id="veh10" type="veh_passenger" depart="12.19" departLane="best" from="32124684#2" to="31695140#0" />
    <trip id="veh11" type="veh_passenger" depart="13.41" departLane="best" from="-32911766#1" to="-31650745#6" />
    <trip id="t_3" type="veh_passenger" depart="14.00" from="-34831706" to="-E2" />
    <trip id="motorcycle1" type="motorcycle_motorcycle" depart="14.63" departLane="best" from="50904218#0" to="-190575222" />
    <trip id="veh13" type="veh_passenger" depart="15.85" departLane="best" departSpeed="max" from="-188336209" to="-198269729#4" />
    <trip id="truck_hore_3" type="truck_truck" depart="17.00" from="-232306715" to="34761823" via="31693048 355419953 85760478" />
	<trip id="bus1" type="bus_bus" depart="17.04" departLane="best" departSpeed="max" from="-30372710#1" to="-50903417#3" />
    <trip id="veh14" type="veh_passenger" depart="17.07" departLane="best" from="34831737" to="30372785" />
    <trip id="veh15" type="veh_passenger" depart="18.28" departLane="best" departSpeed="max" from="32125952#0" to="32911727#8" />
    <trip id="veh16" type="veh_passenger" depart="19.50" departLane="best" from="155782648#1" to="96717902" />
    <trip id="truck_rovno_3" type="truck_truck" depart="20.00" from="-232306715" to="313240470#0" via="31693048 355419953 30408510 44600173" />
	<trip id="t_4" type="veh_passenger" depart="20.00" from="-34831706" to="156389209#0" />
    <trip id="veh17" type="veh_passenger" depart="20.72" departLane="best" departSpeed="max" from="-462651285" to="292477466" />
    <trip id="veh18" type="veh_passenger" depart="21.94" departLane="best" departSpeed="max" from="32911752#0" to="30375664#1" />
    <trip id="t_5" type="veh_passenger" depart="22.00" from="-34831706" to="-E2" />
    <trip id="veh19" type="veh_passenger" depart="23.16" departLane="best" from="355419952#0" to="30173664" />
    <trip id="t_6" type="veh_passenger" depart="24.00" from="-34831706" to="30413441#0" />
    <trip id="veh20" type="veh_passenger" depart="24.38" departLane="best" from="-30372738#0" to="-186137743#0" />
    <trip id="truck_hore_4" type="truck_truck" depart="25.00" from="-232306715" to="34761823" via="31693048 355419953 85760478" />
	<trip id="veh21" type="veh_passenger" depart="25.60" departLane="best" from="-30173627#2" to="1092691112#2" />
    <trip id="veh22" type="veh_passenger" depart="26.82" departLane="best" from="-187672039#2" to="-666323061" />
    <trip id="truck_rovno_4" type="truck_truck" depart="28.00" from="-232306715" to="313240470#0" via="31693048 355419953 30408510 44600173" />
	<trip id="t_7" type="veh_passenger" depart="28.00" from="-34831706" to="30375691#2" />
    <trip id="veh23" type="veh_passenger" depart="28.04" departLane="best" departSpeed="max" from="-189817827" to="101883663" />
    <trip id="motorcycle2" type="motorcycle_motorcycle" depart="29.26" departLane="best" from="30372778" to="29178407#1" />
    <trip id="veh24" type="veh_passenger" depart="29.26" departLane="best" departSpeed="max" from="217887388#0" to="186347622#2" />
    <trip id="veh25" type="veh_passenger" depart="30.47" departLane="best" from="-437906537#1" to="-431227775" />
    <trip id="veh26" type="veh_passenger" depart="31.69" departLane="best" from="-30375680#2" to="902416879" />
    <trip id="t_8" type="veh_passenger" depart="32.00" from="-34831706" to="30375695#1" />
    <trip id="veh27" type="veh_passenger" depart="32.91" departLane="best" departSpeed="max" from="23495067" to="30372790#5" />
    <trip id="truck_hore_5" type="truck_truck" depart="33.00" from="-232306715" to="34761823" via="31693048 355419953 85760478" />
	<trip id="bus2" type="bus_bus" depart="34.09" departLane="best" from="-30372729#7" to="30406399#0" />
    <trip id="veh28" type="veh_passenger" depart="34.13" departLane="best" departSpeed="max" from="-190588953" to="32911727#6" />
    <trip id="veh29" type="veh_passenger" depart="35.35" departLane="best" departSpeed="max" from="-190575213" to="186347668#0" />
    <trip id="truck_rovno_5" type="truck_truck" depart="36.00" from="-232306715" to="313240470#0" via="31693048 355419953 30408510 44600173" />
	<trip id="t_9" type="veh_passenger" depart="36.00" from="-34831706" to="32911753#1" />
    <trip id="veh30" type="veh_passenger" depart="36.57" departLane="best" from="186347645#0" to="316665778" />
    <trip id="veh31" type="veh_passenger" depart="37.79" departLane="best" from="33232976#1" to="34831707" />
    <trip id="t_10" type="veh_passenger" depart="40.00" from="-34831706" to="30406382#0" />
    <trip id="veh33" type="veh_passenger" depart="40.23" departLane="best" from="-31989677" to="-E2" />
    <trip id="truck_hore_6" type="truck_truck" depart="41.00" from="-232306715" to="34761823" via="31693048 355419953 85760478" />
	<trip id="veh34" type="veh_passenger" depart="41.44" departLane="best" departSpeed="max" from="-235045390" to="913274227#0" />
    <trip id="veh35" type="veh_passenger" depart="42.66" departLane="best" from="437906537#1" to="137724688#0" />
    <trip id="motorcycle3" type="motorcycle_motorcycle" depart="43.88" departLane="best" departSpeed="max" from="32911752#0" to="31692645#4" />
    <trip id="veh36" type="veh_passenger" depart="43.88" departLane="best" from="24239143#0" to="186522355" />
    <trip id="truck_rovno_6" type="truck_truck" depart="44.00" from="-232306715" to="313240470#0" via="31693048 355419953 30408510 44600173" />
	<trip id="veh37" type="veh_passenger" depart="45.10" departLane="best" departSpeed="max" from="609563228#0" to="190568705#1" />
    <trip id="veh38" type="veh_passenger" depart="46.32" departLane="best" departSpeed="max" from="-30375664#1" to="-913957434" />
    <trip id="veh39" type="veh_passenger" depart="47.54" departLane="best" from="186347664" to="-96722132#1" />
    <trip id="t_11" type="veh_passenger" depart="48.00" from="-34831706" to="30413441#0" />
    <trip id="veh40" type="veh_passenger" depart="48.76" departLane="best" from="186631335#0" to="693089275#1" />
    <trip id="truck_hore_7" type="truck_truck" depart="49.00" from="-232306715" to="34761823" via="31693048 355419953 85760478" />
	<trip id="veh41" type="veh_passenger" depart="49.98" departLane="best" departSpeed="max" from="E2" to="234177112#0.184" />
    <trip id="bus3" type="bus_bus" depart="51.13" departLane="best" from="50900503#0" to="-190561793#0" />
    <trip id="veh42" type="veh_passenger" depart="51.20" departLane="best" departSpeed="max" from="-188336209" to="-186137743#0" />
    <trip id="truck_rovno_7" type="truck_truck" depart="52.00" from="-232306715" to="313240470#0" via="31693048 355419953 30408510 44600173" />
	<trip id="veh43" type="veh_passenger" depart="52.42" departLane="best" departSpeed="max" from="-190561840" to="30375691#2" />
    <trip id="veh44" type="veh_passenger" depart="53.63" departLane="best" from="31887302#5" to="188308787#1" />
    <trip id="veh45" type="veh_passenger" depart="54.85" departLane="best" departSpeed="max" from="-186137686" to="186347669#1" />
    <trip id="veh46" type="veh_passenger" depart="56.07" departLane="best" departSpeed="max" from="E2" to="263931195" />
    <trip id="truck_hore_8" type="truck_truck" depart="57.00" from="-232306715" to="34761823" via="31693048 355419953 85760478" />
	<trip id="veh47" type="veh_passenger" depart="57.29" departLane="best" departSpeed="max" from="95535723#0" to="60292292" />
    <trip id="motorcycle4" type="motorcycle_motorcycle" depart="58.51" departLane="best" from="32911752#1" to="31887302#3" />
    <trip id="veh48" type="veh_passenger" depart="58.51" departLane="best" departSpeed="max" from="-101883745#2" to="32125957#4" />
    <trip id="veh49" type="veh_passenger" depart="59.73" departLane="best" from="29178421" to="284313254#0" />
    <trip id="truck_rovno_8" type="truck_truck" depart="60.00" from="-232306715" to="313240470#0" via="31693048 355419953 30408510 44600173" />
	<trip id="veh50" type="veh_passenger" depart="60.95" departLane="best" departSpeed="max" from="-30375664#1" to="30406377#0" />
    <trip id="t_12" type="veh_passenger" depart="62.00" from="-34831706" to="-E2" />
    <trip id="veh51" type="veh_passenger" depart="62.17" departLane="best" departSpeed="max" from="-190561840" to="189804179" />
    <trip id="veh53" type="veh_passenger" depart="64.61" departLane="best" from="1092691112#1" to="-32124684#3" />
    <trip id="truck_hore_9" type="truck_truck" depart="65.00" from="-232306715" to="34761823" via="31693048 355419953 85760478" />
	<trip id="veh54" type="veh_passenger" depart="65.82" departLane="best" from="-60342002#9" to="60292325" />
    <trip id="veh55" type="veh_passenger" depart="67.04" departLane="best" from="31584239#0" to="30406371" />
    <trip id="truck_rovno_9" type="truck_truck" depart="68.00" from="-232306715" to="313240470#0" via="31693048 355419953 30408510 44600173" />
	<trip id="t_13" type="veh_passenger" depart="68.00" from="-34831706" to="30413441#0" />
    <trip id="veh56" type="veh_passenger" depart="68.26" departLane="best" departSpeed="max" from="189817823" to="-31584239#3" />
    <trip id="veh57" type="veh_passenger" depart="69.48" departLane="best" departSpeed="max" from="31583018#0" to="28666334" />
    <trip id="veh58" type="veh_passenger" depart="70.70" departLane="best" from="186631335#0" to="270180625" />
    <trip id="veh59" type="veh_passenger" depart="71.92" departLane="best" from="-1011655942#5" to="155783436#0" />
    <trip id="truck_hore_10" type="truck_truck" depart="73.00" from="-232306715" to="34761823" via="31693048 355419953 85760478" />
	<trip id="motorcycle5" type="motorcycle_motorcycle" depart="73.14" departLane="best" from="198269729#1" to="-95535538" />
    <trip id="veh60" type="veh_passenger" depart="73.14" departLane="best" departSpeed="max" from="-1117467078" to="85760503" />
    <trip id="t_14" type="veh_passenger" depart="74.00" from="-34831706" to="30413441#0" />
    <trip id="veh61" type="veh_passenger" depart="74.36" departLane="best" from="44600175#0" to="508253691" />
    <trip id="veh62" type="veh_passenger" depart="75.58" departLane="best" from="44600173" to="92748205#6" />
    <trip id="truck_rovno_10" type="truck_truck" depart="76.00" from="-232306715" to="313240470#0" via="31693048 355419953 30408510 44600173" />
	<trip id="veh63" type="veh_passenger" depart="76.80" departLane="best" departSpeed="max" from="-187899747#1" to="211367329#0" />
    <trip id="veh64" type="veh_passenger" depart="78.01" departLane="best" from="31583370#1" to="-30372783#0" />
    <trip id="veh65" type="veh_passenger" depart="79.23" departLane="best" from="190561783" to="29178415#0" />
    <trip id="veh66" type="veh_passenger" depart="80.45" departLane="best" departSpeed="max" from="-30375664#1" to="60342002#10" />
    <trip id="truck_hore_11" type="truck_truck" depart="81.00" from="-232306715" to="34761823" via="31693048 355419953 85760478" />
	<trip id="veh67" type="veh_passenger" depart="81.67" departLane="best" from="-72754152" to="-465250734#3.245" />
    <trip id="veh68" type="veh_passenger" depart="82.89" departLane="best" from="-157307968#0" to="32911727#9" />
    <trip id="t_15" type="veh_passenger" depart="83.00" from="-34831706" to="30413441#0" />
    <trip id="truck_rovno_11" type="truck_truck" depart="84.00" from="-232306715" to="313240470#0" via="31693048 355419953 30408510 44600173" />
	<trip id="veh69" type="veh_passenger" depart="84.11" departLane="best" from="-50903417#1" to="355419940#1" />
    <trip id="bus5" type="bus_bus" depart="85.21" departLane="best" from="-192485199#5" to="211367329#1" />
    <trip id="veh70" type="veh_passenger" depart="85.33" departLane="best" departSpeed="max" from="E2" to="30408504" />
    <trip id="veh71" type="veh_passenger" depart="86.55" departLane="best" departSpeed="max" from="-902416879" to="24896976" />
    <trip id="motorcycle6" type="motorcycle_motorcycle" depart="87.77" departLane="best" from="30413454" to="-186602943#10" />
    <trip id="veh72" type="veh_passenger" depart="87.77" departLane="best" from="-190568617#1" to="-59297350" />
    <trip id="veh73" type="veh_passenger" depart="88.98" departLane="best" departSpeed="max" from="-32911758#2" to="30372724" />
    <trip id="truck_hore_12" type="truck_truck" depart="89.00" from="-232306715" to="34761823" via="31693048 355419953 85760478" />
	<trip id="t_16" type="veh_passenger" depart="89.00" from="-34831706" to="30413441#0" />
    <trip id="veh74" type="veh_passenger" depart="90.20" departLane="best" departSpeed="max" from="-30173631" to="-50904218#4" />
    <trip id="veh75" type="veh_passenger" depart="91.42" departLane="best" from="-186347629" to="30375695#0" />
    <trip id="truck_rovno_12" type="truck_truck" depart="92.00" from="-232306715" to="313240470#0" via="31693048 355419953 30408510 44600173" />
	<trip id="veh76" type="veh_passenger" depart="92.64" departLane="best" departSpeed="max" from="-30173631" to="70931799" />
    <trip id="veh77" type="veh_passenger" depart="93.86" departLane="best" from="355419949" to="-190443377#0" />
    <trip id="t_17" type="veh_passenger" depart="95.00" from="-34831706" to="30413441#0" />
    <trip id="veh78" type="veh_passenger" depart="95.08" departLane="best" departSpeed="max" from="-30372710#1" to="313240470#0" />
    <trip id="veh79" type="veh_passenger" depart="96.30" departLane="best" from="-252290063#4" to="-30375691#0" />
    <trip id="truck_hore_13" type="truck_truck" depart="97.00" from="-232306715" to="34761823" via="31693048 355419953 85760478" />
	<trip id="veh80" type="veh_passenger" depart="97.52" departLane="best" departSpeed="max" from="693089275#0" to="30173643" />
    <trip id="veh81" type="veh_passenger" depart="98.74" departLane="best" departSpeed="max" from="-96722132#3" to="355419950" />
    <trip id="veh82" type="veh_passenger" depart="99.96" departLane="best" departSpeed="max" from="32125952#0" to="-32911737" />
    <trip id="truck_rovno_13" type="truck_truck" depart="100.00" from="-232306715" to="313240470#0" via="31693048 355419953 30408510 44600173" />
	<trip id="t_18" type="veh_passenger" depart="101.00" from="-34831706" to="30413441#0" />
    <trip id="veh83" type="veh_passenger" depart="101.17" departLane="best" departSpeed="max" from="-188569287#2" to="189535676#0" />
    <trip id="bus6" type="bus_bus" depart="102.26" departLane="best" from="125503316#11" to="-32124684#0" />
    <trip id="motorcycle7" type="motorcycle_motorcycle" depart="102.39" departLane="best" departSpeed="max" from="-902416879" to="-32124684#0" />
    <trip id="veh84" type="veh_passenger" depart="102.39" departLane="best" from="-779046921" to="190579552#1" />
    <trip id="veh85" type="veh_passenger" depart="103.61" departLane="best" from="30375702#0" to="314690778#0" />
    <trip id="veh86" type="veh_passenger" depart="104.83" departLane="best" departSpeed="max" from="96717930#0" to="-211367332" />
    <trip id="truck_hore_14" type="truck_truck" depart="105.00" from="-232306715" to="34761823" via="31693048 355419953 85760478" />
	<trip id="veh87" type="veh_passenger" depart="106.05" departLane="best" from="-60342002#4" to="171378094" />
    <trip id="t_19" type="veh_passenger" depart="107.00" from="-34831706" to="30413441#0" />
    <trip id="veh88" type="veh_passenger" depart="107.27" departLane="best" from="355419952#0" to="-95535723#0" />
    <trip id="truck_rovno_14" type="truck_truck" depart="108.00" from="-232306715" to="313240470#0" via="31693048 355419953 30408510 44600173" />
	<trip id="veh89" type="veh_passenger" depart="108.49" departLane="best" departSpeed="max" from="-211374403#2" to="190561849" />
    <trip id="veh90" type="veh_passenger" depart="109.71" departLane="best" from="-72709844#0" to="101883663" />
    <trip id="veh91" type="veh_passenger" depart="110.93" departLane="best" departSpeed="max" from="-30372777" to="814136851" />
    <trip id="veh92" type="veh_passenger" depart="112.15" departLane="best" from="-91084045#0" to="60292292" />
    <trip id="truck_hore_15" type="truck_truck" depart="113.00" from="-232306715" to="34761823" via="31693048 355419953 85760478" />
	<trip id="t_20" type="veh_passenger" depart="113.00" from="-34831706" to="30413441#0" />
    <trip id="veh93" type="veh_passenger" depart="113.36" departLane="best" from="186347624" to="-186522339#7" />
    <trip id="veh94" type="veh_passenger" depart="114.58" departLane="best" from="E4" to="50900505#4" />
    <trip id="veh95" type="veh_passenger" depart="115.80" departLane="best" from="95535564#0" to="851208065" />
    <trip id="truck_rovno_15" type="truck_truck" depart="116.00" from="-232306715" to="313240470#0" via="31693048 355419953 30408510 44600173" />
	<trip id="motorcycle8" type="motorcycle_motorcycle" depart="117.02" departLane="best" from="-32124684#4" to="-72709844#0" />
    <trip id="veh96" type="veh_passenger" depart="117.02" departLane="best" from="34831772" to="-31887302#2" />
    <trip id="veh97" type="veh_passenger" depart="118.24" departLane="best" departSpeed="max" from="-E1" to="-482680679#0" />
    <trip id="t_21" type="veh_passenger" depart="119.00" from="-34831706" to="30413441#0" />
    <trip id="bus7" type="bus_bus" depart="119.30" departLane="best" from="-190575160#3" to="253845010" />
    <trip id="veh98" type="veh_passenger" depart="119.46" departLane="best" departSpeed="max" from="-60292314#2" to="-187679452#0" />
    <trip id="veh99" type="veh_passenger" depart="120.68" departLane="best" from="-462651286" to="E0" />
    <trip id="truck_hore_16" type="truck_truck" depart="121.00" from="-232306715" to="34761823" via="31693048 355419953 85760478" />
	<trip id="veh100" type="veh_passenger" depart="121.90" departLane="best" departSpeed="max" from="-30375664#1" to="355419950" />
    <trip id="veh101" type="veh_passenger" depart="123.12" departLane="best" departSpeed="max" from="-953556834" to="188336209" />
    <trip id="truck_rovno_16" type="truck_truck" depart="124.00" from="-232306715" to="313240470#0" via="31693048 355419953 30408510 44600173" />
	<trip id="veh102" type="veh_passenger" depart="124.33" departLane="best" from="186347638#1" to="32124684#4" />
    <trip id="t_22" type="veh_passenger" depart="125.00" from="-34831706" to="30413441#0" />
    <trip id="veh103" type="veh_passenger" depart="125.55" departLane="best" departSpeed="max" from="-190575148" to="1117467078" />
    <trip id="veh104" type="veh_passenger" depart="126.77" departLane="best" from="95535538" to="30173664" />
    <trip id="veh105" type="veh_passenger" depart="127.99" departLane="best" from="185254584#2" to="32911766#2" />
    <trip id="truck_hore_17" type="truck_truck" depart="129.00" from="-232306715" to="34761823" via="31693048 355419953 85760478" />
	<trip id="veh106" type="veh_passenger" depart="129.21" departLane="best" departSpeed="max" from="-185309158" to="30372697" />
    <trip id="veh107" type="veh_passenger" depart="130.43" departLane="best" from="1101006843" to="59853458" />
    <trip id="t_23" type="veh_passenger" depart="131.00" from="-34831706" to="30413441#0" />
    <trip id="motorcycle9" type="motorcycle_motorcycle" depart="131.65" departLane="best" from="-315664063" to="-156062331" />
    <trip id="veh108" type="veh_passenger" depart="131.65" departLane="best" from="-190575171" to="95535757#0" />
    <trip id="truck_rovno_17" type="truck_truck" depart="132.00" from="-232306715" to="313240470#0" via="31693048 355419953 30408510 44600173" />
	<trip id="veh109" type="veh_passenger" depart="132.87" departLane="best" from="-187679451#1" to="32911727#10" />
    <trip id="veh110" type="veh_passenger" depart="134.09" departLane="best" from="187679455#6" to="315455123" />
    <trip id="veh111" type="veh_passenger" depart="135.31" departLane="best" from="-30372705" to="-30372714#2" />
    <trip id="bus8" type="bus_bus" depart="136.34" departLane="best" departSpeed="max" from="-192485204#3" to="30173637" />
    <trip id="veh112" type="veh_passenger" depart="136.52" departLane="best" from="50900495" to="-913957426" />
    <trip id="truck_hore_18" type="truck_truck" depart="137.00" from="-232306715" to="34761823" via="31693048 355419953 85760478" />
	<trip id="t_24" type="veh_passenger" depart="137.00" from="-34831706" to="30413441#0" />
    <trip id="veh113" type="veh_passenger" depart="137.74" departLane="best" from="187679455#0" to="30375664#1" />
    <trip id="veh114" type="veh_passenger" depart="138.96" departLane="best" departSpeed="max" from="-70931810#4.140" to="30335916#2" />
    <trip id="truck_rovno_18" type="truck_truck" depart="140.00" from="-232306715" to="313240470#0" via="31693048 355419953 30408510 44600173" />
	<trip id="veh116" type="veh_passenger" depart="141.40" departLane="best" from="-222338264" to="187427891" />
    <trip id="veh117" type="veh_passenger" depart="142.62" departLane="best" from="-30372723" to="186522359#1" />
    <trip id="t_25" type="veh_passenger" depart="143.00" from="-34831706" to="30413441#0" />
    <trip id="veh118" type="veh_passenger" depart="143.84" departLane="best" from="29178398#1" to="186347622#2" />
    <trip id="truck_hore_19" type="truck_truck" depart="145.00" from="-232306715" to="34761823" via="31693048 355419953 85760478" />
	<trip id="veh119" type="veh_passenger" depart="145.06" departLane="best" from="-32123850#0" to="330480809#1" />
    <trip id="motorcycle10" type="motorcycle_motorcycle" depart="146.28" departLane="best" from="30372800" to="186347641" />
    <trip id="veh120" type="veh_passenger" depart="146.28" departLane="best" from="186522339#4" to="190568705#1" />
    <trip id="veh121" type="veh_passenger" depart="147.50" departLane="best" departSpeed="max" from="E2" to="E1" />
    <trip id="truck_rovno_19" type="truck_truck" depart="148.00" from="-232306715" to="313240470#0" via="31693048 355419953 30408510 44600173" />
	<trip id="veh122" type="veh_passenger" depart="148.71" departLane="best" departSpeed="max" from="-186522355" to="-482680679#0" />
    <trip id="t_26" type="veh_passenger" depart="149.00" from="-34831706" to="30413441#0" />
    <trip id="veh123" type="veh_passenger" depart="149.93" departLane="best" departSpeed="max" from="-30375664#1" to="895705260" />
    <trip id="veh124" type="veh_passenger" depart="151.15" departLane="best" from="449089045#4" to="636485111" />
    <trip id="veh125" type="veh_passenger" depart="152.37" departLane="best" departSpeed="max" from="-437208554#1" to="-316664445" />
    <trip id="truck_hore_20" type="truck_truck" depart="153.00" from="-232306715" to="34761823" via="31693048 355419953 85760478" />
	<trip id="bus9" type="bus_bus" depart="153.38" departLane="best" from="31695285" to="-104477959" />
    <trip id="veh126" type="veh_passenger" depart="153.59" departLane="best" from="32911756#1" to="31887110" />
    <trip id="veh127" type="veh_passenger" depart="154.81" departLane="best" departSpeed="max" from="190443377#0" to="E0" />
    <trip id="t_27" type="veh_passenger" depart="155.00" from="-34831706" to="30413441#0" />
    <trip id="truck_rovno_20" type="truck_truck" depart="156.00" from="-232306715" to="313240470#0" via="31693048 355419953 30408510 44600173" />
	<trip id="veh128" type="veh_passenger" depart="156.03" departLane="best" from="235264142#0" to="-104477959" />
    <trip id="veh129" type="veh_passenger" depart="157.25" departLane="best" from="32911721#3" to="1125030789" />
    <trip id="veh130" type="veh_passenger" depart="158.47" departLane="best" from="270180625" to="91084045#0" />
    <trip id="veh131" type="veh_passenger" depart="159.68" departLane="best" departSpeed="max" from="-190568651#1" to="28666325" />
    <trip id="motorcycle11" type="motorcycle_motorcycle" depart="160.90" departLane="best" from="235264138#0" to="50903418#0" />
    <trip id="veh132" type="veh_passenger" depart="160.90" departLane="best" departSpeed="max" from="-190561815" to="292477466" />
    <trip id="truck_hore_21" type="truck_truck" depart="161.00" from="-232306715" to="34761823" via="31693048 355419953 85760478" />
	<trip id="t_28" type="veh_passenger" depart="161.00" from="-34831706" to="30413441#0" />
    <trip id="veh133" type="veh_passenger" depart="162.12" departLane="best" departSpeed="max" from="-30375693" to="30372788" />
    <trip id="veh134" type="veh_passenger" depart="163.34" departLane="best" from="30372790#2" to="330480809#0" />
    <trip id="truck_rovno_21" type="truck_truck" depart="164.00" from="-232306715" to="313240470#0" via="31693048 355419953 30408510 44600173" />
	<trip id="veh135" type="veh_passenger" depart="164.56" departLane="best" departSpeed="max" from="217887388#0" to="-96772836#0" />
    <trip id="veh136" type="veh_passenger" depart="165.78" departLane="best" departSpeed="max" from="1011655943#0" to="70931799" />
    <trip id="t_29" type="veh_passenger" depart="167.00" from="-34831706" to="30413441#0" />
    <trip id="veh137" type="veh_passenger" depart="167.00" departLane="best" from="34831689#1" to="-192485198#1" />
    <trip id="veh138" type="veh_passenger" depart="168.22" departLane="best" from="-779046921" to="101883176#0" />
    <trip id="truck_hore_22" type="truck_truck" depart="169.00" from="-232306715" to="34761823" via="31693048 355419953 85760478" />
	<trip id="veh139" type="veh_passenger" depart="169.44" departLane="best" departSpeed="max" from="-101883176#2" to="34761823" />
    <trip id="bus10" type="bus_bus" depart="170.43" departLane="best" from="31694738#1" to="-31584239#4" />
    <trip id="veh140" type="veh_passenger" depart="170.66" departLane="best" from="222335169#0" to="-96722132#1" />
    <trip id="veh141" type="veh_passenger" depart="171.87" departLane="best" departSpeed="max" from="30406398" to="292477466" />
    <trip id="truck_rovno_22" type="truck_truck" depart="172.00" from="-232306715" to="313240470#0" via="31693048 355419953 30408510 44600173" />
	<trip id="t_30" type="veh_passenger" depart="173.00" from="-34831706" to="30413441#0" />
    <trip id="veh142" type="veh_passenger" depart="173.09" departLane="best" departSpeed="max" from="-784004278#1" to="-104478145#0" />
    <trip id="veh143" type="veh_passenger" depart="174.31" departLane="best" departSpeed="max" from="-186522355" to="636556415" />
    <trip id="motorcycle12" type="motorcycle_motorcycle" depart="175.53" departLane="best" from="-373417171#0" to="-187899748#0" />
    <trip id="veh144" type="veh_passenger" depart="175.53" departLane="best" departSpeed="max" from="552200375#0" to="29178407#3" />
    <trip id="veh145" type="veh_passenger" depart="176.75" departLane="best" from="32911757#2" to="30173665" />
    <trip id="truck_hore_23" type="truck_truck" depart="177.00" from="-232306715" to="34761823" via="31693048 355419953 85760478" />
	<trip id="veh146" type="veh_passenger" depart="177.97" departLane="best" departSpeed="max" from="-190575086" to="-30372760#0" />
    <trip id="t_31" type="veh_passenger" depart="179.00" from="-34831706" to="30413441#0" />
    <trip id="veh147" type="veh_passenger" depart="179.19" departLane="best" from="-31893284#2" to="693089275#1" />
    <trip id="truck_rovno_23" type="truck_truck" depart="180.00" from="-232306715" to="313240470#0" via="31693048 355419953 30408510 44600173" />
	<trip id="veh148" type="veh_passenger" depart="180.41" departLane="best" from="31985173#1" to="60292292" />
    <trip id="veh149" type="veh_passenger" depart="181.63" departLane="best" from="189817804" to="431227776#0" />
    <trip id="veh150" type="veh_passenger" depart="182.85" departLane="best" departSpeed="max" from="-30372777" to="-211463848" />
    <trip id="veh151" type="veh_passenger" depart="184.06" departLane="best" departSpeed="max" from="-636485111" to="30375675#0" />
    <trip id="truck_hore_24" type="truck_truck" depart="185.00" from="-232306715" to="34761823" via="31693048 355419953 85760478" />